mvnetwork.dss
Clear 

Set DefaultBaseFrequency=50 

! Swing or Source Bar 
New circuit.To-look-at-0.3_1 phases=3 pu=1.0 basekv=50.0 bus1=jointHighVoltageTrafo_import 

! Trafo XFMRCodes 
Redirect XFMRCode.dss 

! Trafo 
New Transformer.transformer5 Xfmrcode=testtrafotype Buses=[joint5  lvjoint7.1.2.3] kVs=[50.0 10.0] 
New Transformer.transformer10 Xfmrcode=testtrafotype Buses=[joint10  lvjoint12.1.2.3] kVs=[50.0 10.0] 
New Transformer.transformer14 Xfmrcode=testtrafotype Buses=[joint14  lvjoint16.1.2.3] kVs=[50.0 10.0] 
New Transformer.transformer22 Xfmrcode=testtrafotype Buses=[joint22  lvjoint24.1.2.3] kVs=[50.0 10.0] 
New Transformer.transformer27 Xfmrcode=testtrafotype Buses=[joint27  lvjoint29.1.2.3] kVs=[50.0 10.0] 
New Transformer.transformer36 Xfmrcode=testtrafotype Buses=[joint36  lvjoint38.1.2.3] kVs=[50.0 10.0] 
New Transformer.transformer38 Xfmrcode=testtrafotype Buses=[joint38  lvjoint40.1.2.3] kVs=[50.0 10.0] 
New Transformer.transformer44 Xfmrcode=testtrafotype Buses=[joint44  lvjoint46.1.2.3] kVs=[50.0 10.0] 
New Transformer.transformer51 Xfmrcode=testtrafotype Buses=[joint51  lvjoint53.1.2.3] kVs=[50.0 10.0] 
New Transformer.transformer57 Xfmrcode=testtrafotype Buses=[joint57  lvjoint59.1.2.3] kVs=[50.0 10.0] 
New Transformer.transformer63 Xfmrcode=testtrafotype Buses=[joint63  lvjoint65.1.2.3] kVs=[50.0 10.0] 
New Transformer.transformer68 Xfmrcode=testtrafotype Buses=[joint68  lvjoint70.1.2.3] kVs=[50.0 10.0] 
New Transformer.transformer73 Xfmrcode=testtrafotype Buses=[joint73  lvjoint75.1.2.3] kVs=[50.0 10.0] 
New Transformer.transformer80 Xfmrcode=testtrafotype Buses=[joint80  lvjoint82.1.2.3] kVs=[50.0 10.0] 
New Transformer.transformer84 Xfmrcode=testtrafotype Buses=[joint84  lvjoint86.1.2.3] kVs=[50.0 10.0] 
New Transformer.transformer91 Xfmrcode=testtrafotype Buses=[joint91  lvjoint93.1.2.3] kVs=[50.0 10.0] 
New Transformer.HighVoltageTrafo Xfmrcode=testtrafotype Buses=[jointHighVoltageTrafo  jointHighVoltageTrafo_import.1.2.3] kVs=[50.0 10.0] 

! LineCodes 
Redirect LineCode.dss 

! Lines 
New Line.MV_Cable521 Phases=3 Bus1=jointHighVoltageTrafo.1.2.3 Bus2=joint0.1.2.3 LineCode=GPLK-Al-240 Length=48.70612670735268 Units=m 
New Line.MV_Cable367 Phases=3 Bus1=joint0.1.2.3 Bus2=joint1.1.2.3 LineCode=GPLK-Al-240 Length=244.7994300558996 Units=m 
New Line.MV_Cable412 Phases=3 Bus1=joint1.1.2.3 Bus2=joint2.1.2.3 LineCode=GPLK-Al-240 Length=236.12206674659814 Units=m 
New Line.MV_Cable404 Phases=3 Bus1=joint2.1.2.3 Bus2=joint3.1.2.3 LineCode=GPLK-Al-240 Length=247.259115265104 Units=m 
New Line.MV_Cable402 Phases=3 Bus1=joint3.1.2.3 Bus2=joint4.1.2.3 LineCode=GPLK-Al-240 Length=56.21569184705573 Units=m 
New Line.MV_Cable403 Phases=3 Bus1=joint4.1.2.3 Bus2=joint5.1.2.3 LineCode=GPLK-Al-240 Length=54.76296405368228 Units=m 
New Line.MV_Cable401 Phases=3 Bus1=joint5.1.2.3 Bus2=joint7.1.2.3 LineCode=GPLK-Cu-95 Length=52.68657995163447 Units=m 
New Line.MV_Cable295 Phases=3 Bus1=joint7.1.2.3 Bus2=joint8.1.2.3 LineCode=GPLK-Cu-95 Length=26.493849371453912 Units=m 
New Line.MV_Cable290 Phases=3 Bus1=joint8.1.2.3 Bus2=joint9.1.2.3 LineCode=GPLK-Cu-95 Length=249.87264160962445 Units=m 
New Line.MV_Cable287 Phases=3 Bus1=joint9.1.2.3 Bus2=joint10.1.2.3 LineCode=GPLK-Cu-95 Length=74.27900309696884 Units=m 
New Line.MV_Cable274 Phases=3 Bus1=joint10.1.2.3 Bus2=joint12.1.2.3 LineCode=GPLK-Al-240 Length=251.52818603582287 Units=m 
New Line.MV_Cable269 Phases=3 Bus1=joint12.1.2.3 Bus2=joint13.1.2.3 LineCode=GPLK-Al-240 Length=134.45333930736072 Units=m 
New Line.MV_Cable268 Phases=3 Bus1=joint13.1.2.3 Bus2=joint14.1.2.3 LineCode=GPLK-Al-240 Length=65.8315123946106 Units=m 
New Line.MV_Cable267 Phases=3 Bus1=joint14.1.2.3 Bus2=joint16.1.2.3 LineCode=GPLK-Al-240 Length=63.04445960112393 Units=m 
New Line.MV_Cable127 Phases=3 Bus1=joint16.1.2.3 Bus2=joint17.1.2.3 LineCode=GPLK-Al-240 Length=115.57890250300346 Units=m 
New Line.MV_Cable126 Phases=3 Bus1=joint17.1.2.3 Bus2=joint18.1.2.3 LineCode=GPLK-Al-240 Length=1.1772735450871905 Units=m 
New Line.MV_Cable123 Phases=3 Bus1=joint18.1.2.3 Bus2=joint19.1.2.3 LineCode=GPLK-Al-240 Length=26.84615556973283 Units=m 
New Line.MV_Cable120 Phases=3 Bus1=joint19.1.2.3 Bus2=joint20.1.2.3 LineCode=GPLK-Al-240 Length=51.833800159635054 Units=m 
New Line.MV_Cable303 Phases=3 Bus1=joint20.1.2.3 Bus2=joint21.1.2.3 LineCode=GPLK-Al-240 Length=95.16602432935032 Units=m 
New Line.MV_Cable124 Phases=3 Bus1=joint21.1.2.3 Bus2=joint22.1.2.3 LineCode=GPLK-Al-240 Length=22.042625162273424 Units=m 
New Line.MV_Cable125 Phases=3 Bus1=joint22.1.2.3 Bus2=joint24.1.2.3 LineCode=GPLK-Al-240 Length=22.953209403882425 Units=m 
New Line.MV_Cable113 Phases=3 Bus1=joint24.1.2.3 Bus2=joint25.1.2.3 LineCode=GPLK-Al-240 Length=12.64614859705204 Units=m 
New Line.MV_Cable102 Phases=3 Bus1=joint25.1.2.3 Bus2=joint26.1.2.3 LineCode=GPLK-Al-240 Length=174.26158378988723 Units=m 
New Line.MV_Cable119 Phases=3 Bus1=joint26.1.2.3 Bus2=joint27.1.2.3 LineCode=GPLK-Al-240 Length=38.671016114246285 Units=m 
New Line.MV_Cable118 Phases=3 Bus1=joint27.1.2.3 Bus2=joint29.1.2.3 LineCode=GPLK-Al-240 Length=44.8873409108016 Units=m 
New Line.MV_Cable100 Phases=3 Bus1=joint29.1.2.3 Bus2=joint30.1.2.3 LineCode=GPLK-Al-240 Length=92.74720826730614 Units=m 
New Line.MV_Cable112 Phases=3 Bus1=joint30.1.2.3 Bus2=joint31.1.2.3 LineCode=GPLK-Al-240 Length=20.58572166065373 Units=m 
New Line.MV_Cable99 Phases=3 Bus1=joint31.1.2.3 Bus2=joint32.1.2.3 LineCode=GPLK-Al-240 Length=355.0727779169831 Units=m 
New Line.MV_Cable266 Phases=3 Bus1=joint32.1.2.3 Bus2=joint33.1.2.3 LineCode=GPLK-Al-240 Length=184.26312726035854 Units=m 
New Line.MV_Cable190 Phases=3 Bus1=joint33.1.2.3 Bus2=joint34.1.2.3 LineCode=GPLK-Al-240 Length=70.64673209744348 Units=m 
New Line.MV_Cable56 Phases=3 Bus1=joint34.1.2.3 Bus2=joint35.1.2.3 LineCode=GPLK-Al-240 Length=101.22639508493215 Units=m 
New Line.MV_Cable53 Phases=3 Bus1=joint35.1.2.3 Bus2=joint36.1.2.3 LineCode=GPLK-Al-240 Length=61.89996786393325 Units=m 
New Line.MV_Cable106 Phases=3 Bus1=joint36.1.2.3 Bus2=joint38.1.2.3 LineCode=GPLK-Al-240 Length=12.622249837845821 Units=m 
New Line.MV_Cable105 Phases=3 Bus1=joint38.1.2.3 Bus2=joint40.1.2.3 LineCode=GPLK-Cu-95 Length=26.735180043736477 Units=m 
New Line.MV_Cable54 Phases=3 Bus1=joint40.1.2.3 Bus2=joint41.1.2.3 LineCode=GPLK-Cu-95 Length=32.40218121550397 Units=m 
New Line.MV_Cable55 Phases=3 Bus1=joint41.1.2.3 Bus2=joint42.1.2.3 LineCode=GPLK-Cu-95 Length=89.48066018787449 Units=m 
New Line.MV_Cable57 Phases=3 Bus1=joint42.1.2.3 Bus2=joint43.1.2.3 LineCode=GPLK-Cu-95 Length=55.9398232157146 Units=m 
New Line.MV_Cable216 Phases=3 Bus1=joint43.1.2.3 Bus2=joint44.1.2.3 LineCode=GPLK-Cu-95 Length=4.625261150243468 Units=m 
New Line.MV_Cable215 Phases=3 Bus1=joint44.1.2.3 Bus2=joint46.1.2.3 LineCode=GPLK-Al-240 Length=5.169610240565618 Units=m 
New Line.MV_Cable188 Phases=3 Bus1=joint46.1.2.3 Bus2=joint47.1.2.3 LineCode=GPLK-Al-240 Length=193.1572750915696 Units=m 
New Line.MV_Cable197 Phases=3 Bus1=joint47.1.2.3 Bus2=joint48.1.2.3 LineCode=GPLK-Al-240 Length=135.85139244985808 Units=m 
New Line.MV_Cable204 Phases=3 Bus1=joint48.1.2.3 Bus2=joint49.1.2.3 LineCode=GPLK-Al-240 Length=73.02259114201128 Units=m 
New Line.MV_Cable281 Phases=3 Bus1=joint49.1.2.3 Bus2=joint50.1.2.3 LineCode=GPLK-Al-240 Length=77.83193815729331 Units=m 
New Line.MV_Cable277 Phases=3 Bus1=joint50.1.2.3 Bus2=joint51.1.2.3 LineCode=GPLK-Al-240 Length=69.32377345398434 Units=m 
New Line.MV_Cable278 Phases=3 Bus1=joint51.1.2.3 Bus2=joint53.1.2.3 LineCode=GPLK-Al-240 Length=67.86928202750038 Units=m 
New Line.MV_Cable282 Phases=3 Bus1=joint53.1.2.3 Bus2=joint54.1.2.3 LineCode=GPLK-Al-240 Length=85.60786820997117 Units=m 
New Line.MV_Cable302 Phases=3 Bus1=joint54.1.2.3 Bus2=joint55.1.2.3 LineCode=GPLK-Al-240 Length=3.5995184400176043 Units=m 
New Line.MV_Cable203 Phases=3 Bus1=joint55.1.2.3 Bus2=joint56.1.2.3 LineCode=GPLK-Al-240 Length=66.8956522179066 Units=m 
New Line.MV_Cable202 Phases=3 Bus1=joint56.1.2.3 Bus2=joint57.1.2.3 LineCode=GPLK-Al-240 Length=100.71503701974069 Units=m 
New Line.MV_Cable207 Phases=3 Bus1=joint57.1.2.3 Bus2=joint59.1.2.3 LineCode=GPLK-Al-240 Length=8.746758390508692 Units=m 
New Line.MV_Cable208 Phases=3 Bus1=joint59.1.2.3 Bus2=joint60.1.2.3 LineCode=GPLK-Al-240 Length=299.5681879330991 Units=m 
New Line.MV_Cable160 Phases=3 Bus1=joint60.1.2.3 Bus2=joint61.1.2.3 LineCode=GPLK-Al-240 Length=55.451904167996794 Units=m 
New Line.MV_Cable165 Phases=3 Bus1=joint61.1.2.3 Bus2=joint62.1.2.3 LineCode=GPLK-Al-240 Length=36.36427934314781 Units=m 
New Line.MV_Cable166 Phases=3 Bus1=joint62.1.2.3 Bus2=joint63.1.2.3 LineCode=GPLK-Al-240 Length=5.8145267574136 Units=m 
New Line.MV_Cable168 Phases=3 Bus1=joint63.1.2.3 Bus2=joint65.1.2.3 LineCode=GPLK-Al-240 Length=5.805041766262579 Units=m 
New Line.MV_Cable170 Phases=3 Bus1=joint65.1.2.3 Bus2=joint66.1.2.3 LineCode=GPLK-Al-240 Length=25.364097989171334 Units=m 
New Line.MV_Cable164 Phases=3 Bus1=joint66.1.2.3 Bus2=joint67.1.2.3 LineCode=GPLK-Al-240 Length=236.48289461965243 Units=m 
New Line.MV_Cable162 Phases=3 Bus1=joint67.1.2.3 Bus2=joint68.1.2.3 LineCode=GPLK-Al-240 Length=70.86770175953373 Units=m 
New Line.MV_Cable161 Phases=3 Bus1=joint68.1.2.3 Bus2=joint70.1.2.3 LineCode=GPLK-Al-240 Length=34.009120713470644 Units=m 
New Line.MV_Cable163 Phases=3 Bus1=joint70.1.2.3 Bus2=joint71.1.2.3 LineCode=GPLK-Al-240 Length=244.6076643290648 Units=m 
New Line.MV_Cable255 Phases=3 Bus1=joint71.1.2.3 Bus2=joint72.1.2.3 LineCode=GPLK-Al-240 Length=120.58675778322181 Units=m 
New Line.MV_Cable263 Phases=3 Bus1=joint72.1.2.3 Bus2=joint73.1.2.3 LineCode=GPLK-Al-240 Length=2.6995751517513615 Units=m 
New Line.MV_Cable260 Phases=3 Bus1=joint73.1.2.3 Bus2=joint75.1.2.3 LineCode=GPLK-Al-240 Length=38.484824708612805 Units=m 
New Line.MV_Cable262 Phases=3 Bus1=joint75.1.2.3 Bus2=joint76.1.2.3 LineCode=GPLK-Al-240 Length=45.662589706443 Units=m 
New Line.MV_Cable176 Phases=3 Bus1=joint76.1.2.3 Bus2=joint77.1.2.3 LineCode=GPLK-Al-240 Length=130.47199743723326 Units=m 
New Line.MV_Cable179 Phases=3 Bus1=joint77.1.2.3 Bus2=joint78.1.2.3 LineCode=GPLK-Al-240 Length=238.34098346596855 Units=m 
New Line.MV_Cable256 Phases=3 Bus1=joint78.1.2.3 Bus2=joint79.1.2.3 LineCode=GPLK-Al-240 Length=83.77809784542279 Units=m 
New Line.MV_Cable258 Phases=3 Bus1=joint79.1.2.3 Bus2=joint80.1.2.3 LineCode=GPLK-Al-240 Length=8.317312124153624 Units=m 
New Line.MV_Cable257 Phases=3 Bus1=joint80.1.2.3 Bus2=joint82.1.2.3 LineCode=GPLK-Al-240 Length=8.224945459520137 Units=m 
New Line.MV_Cable259 Phases=3 Bus1=joint82.1.2.3 Bus2=joint83.1.2.3 LineCode=GPLK-Al-240 Length=130.01567802189123 Units=m 
New Line.MV_Cable251 Phases=3 Bus1=joint83.1.2.3 Bus2=joint84.1.2.3 LineCode=GPLK-Al-240 Length=236.0151000931922 Units=m 
New Line.MV_Cable250 Phases=3 Bus1=joint84.1.2.3 Bus2=joint86.1.2.3 LineCode=GPLK-Al-240 Length=147.3192044137618 Units=m 
New Line.MV_Cable248 Phases=3 Bus1=joint86.1.2.3 Bus2=joint87.1.2.3 LineCode=GPLK-Al-240 Length=48.30639236822236 Units=m 
New Line.MV_Cable249 Phases=3 Bus1=joint87.1.2.3 Bus2=joint88.1.2.3 LineCode=GPLK-Al-240 Length=108.78835666447333 Units=m 
New Line.MV_Cable247 Phases=3 Bus1=joint88.1.2.3 Bus2=joint89.1.2.3 LineCode=GPLK-Al-240 Length=103.15282877175993 Units=m 
New Line.MV_Cable244 Phases=3 Bus1=joint89.1.2.3 Bus2=joint90.1.2.3 LineCode=GPLK-Al-240 Length=113.23147174182601 Units=m 
New Line.MV_Cable243 Phases=3 Bus1=joint90.1.2.3 Bus2=joint91.1.2.3 LineCode=GPLK-Al-240 Length=72.25477823380007 Units=m 
New Line.MV_Cable376 Phases=3 Bus1=joint91.1.2.3 Bus2=joint93.1.2.3 LineCode=GPLK-Al-240 Length=192.29740488744764 Units=m 
New Line.MV_Cable374 Phases=3 Bus1=joint93.1.2.3 Bus2=joint94.1.2.3 LineCode=GPLK-Al-240 Length=245.7253544242895 Units=m 
New Line.MV_Cable468 Phases=3 Bus1=joint94.1.2.3 Bus2=joint95.1.2.3 LineCode=GPLK-Al-240 Length=76.59262106385503 Units=m 
New Line.MV_Cable512 Phases=3 Bus1=joint95.1.2.3 Bus2=jointHighVoltageTrafo.1.2.3 LineCode=GPLK-Al-240 Length=13.09795014704964 Units=m 
